Version 4
SHEET 1 880 680
SYMBOL Opamps\\UniversalOpamp2 112 144 R0
SYMATTR InstName U1
SYMBOL voltage -128 192 R0
SYMATTR InstName V1
