Version 4
SHEET 1 880 680
WIRE -912 -416 -1040 -416
WIRE -1040 -368 -1040 -416
WIRE -1008 -368 -1040 -368
WIRE -912 -352 -912 -416
WIRE -912 -352 -944 -352
WIRE -1008 -336 -1040 -336
FLAG -1040 -336 Ve
FLAG -912 -352 Vs
SYMBOL Opamps\\UniversalOpamp2 -976 -352 R0
SYMATTR InstName U1
SYMBOL Opamps\\UniversalOpamp2 528 160 R0
SYMATTR InstName U2
SYMBOL Opamps\\UniversalOpamp2 -464 -336 R0
SYMATTR InstName U3
SYMBOL Misc\\EuropeanResistor -544 -368 R90
WINDOW 0 5 56 VBottom 2
WINDOW 3 27 56 VTop 2
SYMATTR InstName R1
SYMBOL Misc\\EuropeanResistor -416 -464 R90
WINDOW 0 5 56 VBottom 2
WINDOW 3 27 56 VTop 2
SYMATTR InstName R2
TEXT -1104 -512 Left 2 ;SUIVEUR
