Version 4
SHEET 1 1132 680
WIRE 784 0 752 0
WIRE 816 0 784 0
WIRE 928 0 896 0
WIRE 288 80 256 80
WIRE 416 80 368 80
WIRE 528 80 416 80
WIRE 640 80 608 80
WIRE 256 96 256 80
WIRE 368 144 80 144
WIRE 416 144 416 80
WIRE 448 144 416 144
WIRE 640 160 640 80
WIRE 640 160 512 160
WIRE 784 160 784 0
WIRE 816 160 784 160
WIRE 368 176 368 144
WIRE 448 176 368 176
WIRE 960 176 880 176
WIRE 1072 176 1040 176
WIRE 640 192 640 160
WIRE 816 192 640 192
WIRE 1072 192 1072 176
WIRE -64 256 -64 224
WIRE 80 256 80 224
WIRE 480 256 480 192
WIRE 848 256 848 208
FLAG 80 256 0
FLAG 480 256 0
FLAG 480 128 VCC
FLAG 256 96 0
FLAG -64 256 0
FLAG -64 144 VCC
FLAG 928 0 VCC
FLAG 672 0 0
FLAG 848 256 0
FLAG 848 144 VCC
FLAG 1072 256 0
SYMBOL voltage 80 128 R0
WINDOW 123 0 0 Left 2
WINDOW 39 0 0 Left 2
SYMATTR InstName SIGNAL_SENSOR
SYMATTR Value SINE(100m 100m 10)
SYMBOL Opamps\\UniversalOpamp2 480 160 R0
SYMATTR InstName U1
SYMBOL res 384 64 R90
WINDOW 0 0 56 VBottom 2
WINDOW 3 32 56 VTop 2
SYMATTR InstName R1
SYMATTR Value 100
SYMBOL res 624 64 R90
WINDOW 0 0 56 VBottom 2
WINDOW 3 32 56 VTop 2
SYMATTR InstName R2
SYMATTR Value 3k
SYMBOL voltage -64 128 R0
WINDOW 123 0 0 Left 2
WINDOW 39 0 0 Left 2
SYMATTR InstName V1
SYMATTR Value 9V
SYMBOL Opamps\\UniversalOpamp2 848 176 R0
SYMATTR InstName U2
SYMBOL res 768 -16 R90
WINDOW 0 0 56 VBottom 2
WINDOW 3 32 56 VTop 2
SYMATTR InstName R3
SYMATTR Value 5k
SYMBOL res 912 -16 R90
WINDOW 0 0 56 VBottom 2
WINDOW 3 32 56 VTop 2
SYMATTR InstName R4
SYMATTR Value 5k
SYMBOL LED 1056 192 R0
SYMATTR InstName D1
SYMBOL res 1056 160 R90
WINDOW 0 0 56 VBottom 2
WINDOW 3 32 56 VTop 2
SYMATTR InstName R5
SYMATTR Value 330
TEXT 46 280 Left 2 !.tran 0.2
